** written by FreeCAD inp file writer for CalculiX,Abaqus meshes
** highest dimension mesh elements only.

** Nodes
*Node, NSET=Nall
1, 0, 0, 0
2, 0, 0, 10
3, 0, 10, 0
4, 0, 10, 10
5, 10, 0, 0
6, 10, 0, 10
7, 10, 10, 0
8, 10, 10, 10
9, 0, 0, 20
10, 0, 10, 20
11, 10, 0, 20
12, 10, 10, 20
13, 0, 0, 5
14, 0, 5, 0
15, 0, 5, 10
16, 0, 10, 5
17, 5, 0, 0
18, 10, 0, 5
19, 5, 0, 10
20, 5, 10, 0
** ... 93 like lines cut


** Volume elements
*Element, TYPE=C3D10, ELSET=Evolumes
65, 58, 33, 38, 48, 90, 88, 89, 92, 91, 93
66, 38, 43, 33, 58, 95, 94, 88, 89, 96, 90
67, 58, 53, 33, 48, 98, 97, 90, 92, 99, 91
68, 43, 53, 33, 58, 100, 97, 94, 96, 98, 90
69, 8, 53, 7, 58, 57, 56, 24, 62, 98, 61
70, 58, 43, 7, 5, 96, 47, 61, 59, 46, 21
71, 33, 1, 3, 43, 35, 14, 36, 94, 45, 44
72, 38, 1, 43, 5, 39, 45, 95, 41, 17, 46
73, 4, 33, 3, 53, 37, 36, 16, 54, 97, 55
74, 48, 2, 38, 6, 49, 40, 93, 51, 19, 42
75, 53, 3, 7, 43, 55, 20, 56, 100, 44, 47
76, 4, 2, 33, 48, 15, 34, 37, 50, 49, 91
77, 8, 4, 53, 48, 22, 54, 57, 52, 50, 99
78, 6, 38, 58, 5, 42, 89, 60, 18, 41, 59
79, 48, 58, 8, 6, 92, 62, 52, 51, 60, 23
80, 2, 1, 33, 38, 13, 35, 34, 40, 39, 88
81, 38, 33, 2, 48, 88, 34, 40, 93, 91, 49
82, 43, 33, 1, 38, 94, 35, 45, 95, 88, 39
83, 48, 38, 58, 6, 93, 89, 92, 51, 42, 60
84, 53, 4, 33, 48, 54, 37, 97, 99, 50, 91
** ... 28 like lines cut

** Define element set Eall
*ELSET, ELSET=Eall
Evolumes



***********************************************************
** Element sets for materials and FEM element type (solid, shell, beam, fluid)
*ELSET,ELSET=SolidMaterialSolid
65,
66,
67,
68,
69,
70,
71,
72,
73,
74,
75,
76,
77,
78,
79,
80,
81,
82,
83,
84,
** ... 4 like lines cut
*ELSET,ELSET=SolidMaterial001Solid
89,
90,
91,
92,
93,
94,
95,
96,
97,
98,
99,
100,
101,
102,
103,
104,
105,
106,
107,
108,
** ... 4 like lines cut

***********************************************************
** constraints displacement node sets
** FemConstraintDisplacement
*NSET,NSET=FemConstraintDisplacement
1,
3,
5,
7,
14,
17,
20,
21,
43,
44,
45,
46,
47,

***********************************************************
** Materials
** see information about units at file end
** FreeCAD material name: CalculiX-Steel
** SolidMaterial
*MATERIAL, NAME=SolidMaterial
*ELASTIC
210000,0
** FreeCAD material name: CalculiX-Steel
** SolidMaterial001
*MATERIAL, NAME=SolidMaterial001
*ELASTIC
210000,0

***********************************************************
** Sections
*SOLID SECTION, ELSET=SolidMaterialSolid, MATERIAL=SolidMaterial
*SOLID SECTION, ELSET=SolidMaterial001Solid, MATERIAL=SolidMaterial001

***********************************************************
** At least one step is needed to run an CalculiX analysis of FreeCAD
*STEP
*STATIC


***********************************************************
** Displacement constraint applied
** FemConstraintDisplacement
*BOUNDARY
FemConstraintDisplacement,1
FemConstraintDisplacement,2
FemConstraintDisplacement,3


***********************************************************
** constraints pressure element face loads
** FemConstraintPressure
*DLOAD
** FemConstraintPressure: face load
94,P3,1
98,P4,1
99,P3,1
100,P2,1

***********************************************************
** Outputs --> frd file
*NODE FILE
U
*EL FILE
S, E
** outputs --> dat file
** reaction forces for Constraint displacement constraining translation
*NODE PRINT, NSET=FemConstraintDisplacement, TOTALS=ONLY
RF


***********************************************************
*END STEP 

***********************************************************
** CalculiX Input file
**   written by    --> FreeCAD 0.20.29178 (Git)
**   written on    --> Wed Jun 22 10:32:57 2022
**   file name     --> fcFEM_Stacked_Blocks.FCStd
**   analysis name --> Analysis
**
**
***********************************************************
**  About units:
**  See ccx manual, ccx does not know about any unit.
**  Golden rule: The user must make sure that the numbers they provide have consistent units.
**  The user is the FreeCAD calculix writer module ;-)
**
**  The unit system which is used at Guido Dhondt's company: mm, N, s, K
**  Since Length and Mass are connected by Force, if Length is mm the Mass is in t to get N
**  The following units are used to write to inp file:
**
**  Length: mm (this includes the mesh geometry)
**  Mass: t
**  TimeSpan: s
**  Temperature: K
**
**  This leads to:
**  Force: N
**  Pressure: N/mm^2 == MPa (Young's Modulus has unit Pressure)
**  Density: t/mm^3
**  Gravity: mm/s^2
**  Thermal conductivity: t*mm/K/s^3 == as W/m/K == kW/mm/K
**  Specific Heat: mm^2/s^2/K = J/kg/K == kJ/t/K
**
